examples/2bus-13bus/Tr2bus.raw
0  100.000


      1, 3, 0.000, 0.000, 0.000, 0.000, 1, 1.0000,  0.0000, 'Bus1    ', 2.40178, 1
      2, 1, 1.000, 1.000, 0.000, 0.000, 1, 1.0000,  0.0000, 'Bus2    ', 2.40178, 1
0
0 / END OF GENERATOR DATA, BEGIN BRANCH DATA
      1, 2, 'BL', 0.0001, 0.057, 0.00000, 999.00, 999.00, 999.00, 0.00000, 0.000, 0.00000, 0.00000, 0.00000, 0.00000, 1
0 / END OF BRANCH DATA, BEGIN TRANSFORMER ADJUSTMENT DATA
0 / END OF TRANSFORMER ADJUSTMENT DATA, BEGIN AREA DATA
0 / END OF AREA DATA, BEGIN TWO-TERMINAL DC DATA
0 / END OF TWO-TERMINAL DC DATA, BEGIN SWITCHED SHUNT DATA
0 / END OF SWITCHED SHUNT DATA, BEGIN IMPEDANCE CORRECTION DATA
0 / END OF IMPEDANCE CORRECTION DATA, BEGIN MULTI-TERMINAL DC DATA
0 / END OF MULTI-TERMINAL DC DATA, BEGIN MULTI-SECTION LINE DATA
0 / END OF MULTI-SECTION LINE DATA, BEGIN ZONE DATA
0 / END OF ZONE DATA, BEGIN INTER-AREA TRANSFER DATA
0 / END OF INTER-AREA TRANSFER DATA, BEGIN OWNER DATA
0 / END OF OWNER DATA, BEGIN FACTS DEVICE DATA
